<?xml version="1.0" encoding="UTF-8" standalone="yes"?>
<template encoding-version="1.3">
    <description></description>
    <groupId>112c1212-13b5-1193-a7c8-4622126c8269</groupId>
    <name>Load Files To HDFS Flow</name>
    <snippet>
        <processGroups>
            <id>1c30ed87-6e80-3c17-0000-000000000000</id>
            <parentGroupId>59f393e5-e2d3-3f24-0000-000000000000</parentGroupId>
            <position>
                <x>0.0</x>
                <y>0.0</y>
            </position>
            <comments></comments>
            <contents>
                <connections>
                    <id>151d874e-dca3-3c97-0000-000000000000</id>
                    <parentGroupId>1c30ed87-6e80-3c17-0000-000000000000</parentGroupId>
                    <backPressureDataSizeThreshold>1 GB</backPressureDataSizeThreshold>
                    <backPressureObjectThreshold>10000</backPressureObjectThreshold>
                    <destination>
                        <groupId>1c30ed87-6e80-3c17-0000-000000000000</groupId>
                        <id>6f197a27-9be9-3a1e-0000-000000000000</id>
                        <type>PROCESSOR</type>
                    </destination>
                    <flowFileExpiration>0 sec</flowFileExpiration>
                    <labelIndex>1</labelIndex>
                    <loadBalanceCompression>DO_NOT_COMPRESS</loadBalanceCompression>
                    <loadBalancePartitionAttribute></loadBalancePartitionAttribute>
                    <loadBalanceStatus>LOAD_BALANCE_NOT_CONFIGURED</loadBalanceStatus>
                    <loadBalanceStrategy>DO_NOT_LOAD_BALANCE</loadBalanceStrategy>
                    <name></name>
                    <selectedRelationships>success</selectedRelationships>
                    <source>
                        <groupId>1c30ed87-6e80-3c17-0000-000000000000</groupId>
                        <id>99181a61-7c1e-3508-0000-000000000000</id>
                        <type>PROCESSOR</type>
                    </source>
                    <zIndex>0</zIndex>
                </connections>
                <connections>
                    <id>5f8c19bd-1c8b-3013-0000-000000000000</id>
                    <parentGroupId>1c30ed87-6e80-3c17-0000-000000000000</parentGroupId>
                    <backPressureDataSizeThreshold>1 GB</backPressureDataSizeThreshold>
                    <backPressureObjectThreshold>10000</backPressureObjectThreshold>
                    <bends>
                        <x>481.9999968574788</x>
                        <y>178.9999845435643</y>
                    </bends>
                    <destination>
                        <groupId>1c30ed87-6e80-3c17-0000-000000000000</groupId>
                        <id>58ef2ee6-8d47-3bc0-0000-000000000000</id>
                        <type>PROCESSOR</type>
                    </destination>
                    <flowFileExpiration>0 sec</flowFileExpiration>
                    <labelIndex>1</labelIndex>
                    <loadBalanceCompression>DO_NOT_COMPRESS</loadBalanceCompression>
                    <loadBalancePartitionAttribute></loadBalancePartitionAttribute>
                    <loadBalanceStatus>LOAD_BALANCE_NOT_CONFIGURED</loadBalanceStatus>
                    <loadBalanceStrategy>DO_NOT_LOAD_BALANCE</loadBalanceStrategy>
                    <name></name>
                    <selectedRelationships>failure</selectedRelationships>
                    <source>
                        <groupId>1c30ed87-6e80-3c17-0000-000000000000</groupId>
                        <id>6f197a27-9be9-3a1e-0000-000000000000</id>
                        <type>PROCESSOR</type>
                    </source>
                    <zIndex>0</zIndex>
                </connections>
                <connections>
                    <id>6ac6ae72-3ba5-344a-0000-000000000000</id>
                    <parentGroupId>1c30ed87-6e80-3c17-0000-000000000000</parentGroupId>
                    <backPressureDataSizeThreshold>1 GB</backPressureDataSizeThreshold>
                    <backPressureObjectThreshold>10000</backPressureObjectThreshold>
                    <bends>
                        <x>660.0</x>
                        <y>464.0</y>
                    </bends>
                    <destination>
                        <groupId>1c30ed87-6e80-3c17-0000-000000000000</groupId>
                        <id>1b9a81c3-4044-3b27-0000-000000000000</id>
                        <type>PROCESSOR</type>
                    </destination>
                    <flowFileExpiration>0 sec</flowFileExpiration>
                    <labelIndex>1</labelIndex>
                    <loadBalanceCompression>DO_NOT_COMPRESS</loadBalanceCompression>
                    <loadBalancePartitionAttribute></loadBalancePartitionAttribute>
                    <loadBalanceStatus>LOAD_BALANCE_NOT_CONFIGURED</loadBalanceStatus>
                    <loadBalanceStrategy>DO_NOT_LOAD_BALANCE</loadBalanceStrategy>
                    <name></name>
                    <selectedRelationships>failure</selectedRelationships>
                    <source>
                        <groupId>1c30ed87-6e80-3c17-0000-000000000000</groupId>
                        <id>63b6e94b-3ff5-362b-0000-000000000000</id>
                        <type>PROCESSOR</type>
                    </source>
                    <zIndex>0</zIndex>
                </connections>
                <connections>
                    <id>94b1ba18-ed81-37ec-0000-000000000000</id>
                    <parentGroupId>1c30ed87-6e80-3c17-0000-000000000000</parentGroupId>
                    <backPressureDataSizeThreshold>1 GB</backPressureDataSizeThreshold>
                    <backPressureObjectThreshold>10000</backPressureObjectThreshold>
                    <destination>
                        <groupId>1c30ed87-6e80-3c17-0000-000000000000</groupId>
                        <id>1b9a81c3-4044-3b27-0000-000000000000</id>
                        <type>PROCESSOR</type>
                    </destination>
                    <flowFileExpiration>0 sec</flowFileExpiration>
                    <labelIndex>1</labelIndex>
                    <loadBalanceCompression>DO_NOT_COMPRESS</loadBalanceCompression>
                    <loadBalancePartitionAttribute></loadBalancePartitionAttribute>
                    <loadBalanceStatus>LOAD_BALANCE_NOT_CONFIGURED</loadBalanceStatus>
                    <loadBalanceStrategy>DO_NOT_LOAD_BALANCE</loadBalanceStrategy>
                    <name></name>
                    <selectedRelationships>success</selectedRelationships>
                    <source>
                        <groupId>1c30ed87-6e80-3c17-0000-000000000000</groupId>
                        <id>63b6e94b-3ff5-362b-0000-000000000000</id>
                        <type>PROCESSOR</type>
                    </source>
                    <zIndex>0</zIndex>
                </connections>
                <connections>
                    <id>fec7ba40-d88e-30d5-0000-000000000000</id>
                    <parentGroupId>1c30ed87-6e80-3c17-0000-000000000000</parentGroupId>
                    <backPressureDataSizeThreshold>1 GB</backPressureDataSizeThreshold>
                    <backPressureObjectThreshold>10000</backPressureObjectThreshold>
                    <destination>
                        <groupId>1c30ed87-6e80-3c17-0000-000000000000</groupId>
                        <id>63b6e94b-3ff5-362b-0000-000000000000</id>
                        <type>PROCESSOR</type>
                    </destination>
                    <flowFileExpiration>0 sec</flowFileExpiration>
                    <labelIndex>1</labelIndex>
                    <loadBalanceCompression>DO_NOT_COMPRESS</loadBalanceCompression>
                    <loadBalancePartitionAttribute></loadBalancePartitionAttribute>
                    <loadBalanceStatus>LOAD_BALANCE_NOT_CONFIGURED</loadBalanceStatus>
                    <loadBalanceStrategy>DO_NOT_LOAD_BALANCE</loadBalanceStrategy>
                    <name></name>
                    <selectedRelationships>success</selectedRelationships>
                    <source>
                        <groupId>1c30ed87-6e80-3c17-0000-000000000000</groupId>
                        <id>6f197a27-9be9-3a1e-0000-000000000000</id>
                        <type>PROCESSOR</type>
                    </source>
                    <zIndex>0</zIndex>
                </connections>
                <processors>
                    <id>1b9a81c3-4044-3b27-0000-000000000000</id>
                    <parentGroupId>1c30ed87-6e80-3c17-0000-000000000000</parentGroupId>
                    <position>
                        <x>632.0</x>
                        <y>496.0</y>
                    </position>
                    <bundle>
                        <artifact>nifi-standard-nar</artifact>
                        <group>org.apache.nifi</group>
                        <version>1.18.0</version>
                    </bundle>
                    <config>
                        <backoffMechanism>PENALIZE_FLOWFILE</backoffMechanism>
                        <bulletinLevel>WARN</bulletinLevel>
                        <comments></comments>
                        <concurrentlySchedulableTaskCount>1</concurrentlySchedulableTaskCount>
                        <descriptors>
                            <entry>
<key>log-level</key>
<value>
    <name>log-level</name>
</value>
                            </entry>
                            <entry>
<key>log-prefix</key>
<value>
    <name>log-prefix</name>
</value>
                            </entry>
                            <entry>
<key>log-message</key>
<value>
    <name>log-message</name>
</value>
                            </entry>
                        </descriptors>
                        <executionNode>ALL</executionNode>
                        <lossTolerant>false</lossTolerant>
                        <maxBackoffPeriod>10 mins</maxBackoffPeriod>
                        <penaltyDuration>30 sec</penaltyDuration>
                        <properties>
                            <entry>
<key>log-level</key>
<value>info</value>
                            </entry>
                            <entry>
<key>log-prefix</key>
                            </entry>
                            <entry>
<key>log-message</key>
<value>"There is someting wrong"</value>
                            </entry>
                        </properties>
                        <retryCount>10</retryCount>
                        <runDurationMillis>0</runDurationMillis>
                        <schedulingPeriod>0 sec</schedulingPeriod>
                        <schedulingStrategy>TIMER_DRIVEN</schedulingStrategy>
                        <yieldDuration>1 sec</yieldDuration>
                    </config>
                    <executionNodeRestricted>false</executionNodeRestricted>
                    <name>LogMessage</name>
                    <relationships>
                        <autoTerminate>true</autoTerminate>
                        <name>success</name>
                        <retry>false</retry>
                    </relationships>
                    <state>STOPPED</state>
                    <style/>
                    <type>org.apache.nifi.processors.standard.LogMessage</type>
                </processors>
                <processors>
                    <id>58ef2ee6-8d47-3bc0-0000-000000000000</id>
                    <parentGroupId>1c30ed87-6e80-3c17-0000-000000000000</parentGroupId>
                    <position>
                        <x>240.0</x>
                        <y>272.0</y>
                    </position>
                    <bundle>
                        <artifact>nifi-standard-nar</artifact>
                        <group>org.apache.nifi</group>
                        <version>1.18.0</version>
                    </bundle>
                    <config>
                        <backoffMechanism>PENALIZE_FLOWFILE</backoffMechanism>
                        <bulletinLevel>WARN</bulletinLevel>
                        <comments></comments>
                        <concurrentlySchedulableTaskCount>1</concurrentlySchedulableTaskCount>
                        <descriptors>
                            <entry>
<key>log-level</key>
<value>
    <name>log-level</name>
</value>
                            </entry>
                            <entry>
<key>log-prefix</key>
<value>
    <name>log-prefix</name>
</value>
                            </entry>
                            <entry>
<key>log-message</key>
<value>
    <name>log-message</name>
</value>
                            </entry>
                        </descriptors>
                        <executionNode>ALL</executionNode>
                        <lossTolerant>false</lossTolerant>
                        <maxBackoffPeriod>10 mins</maxBackoffPeriod>
                        <penaltyDuration>30 sec</penaltyDuration>
                        <properties>
                            <entry>
<key>log-level</key>
<value>info</value>
                            </entry>
                            <entry>
<key>log-prefix</key>
                            </entry>
                            <entry>
<key>log-message</key>
<value>"There is someting wrong"</value>
                            </entry>
                        </properties>
                        <retryCount>10</retryCount>
                        <runDurationMillis>0</runDurationMillis>
                        <schedulingPeriod>0 sec</schedulingPeriod>
                        <schedulingStrategy>TIMER_DRIVEN</schedulingStrategy>
                        <yieldDuration>1 sec</yieldDuration>
                    </config>
                    <executionNodeRestricted>false</executionNodeRestricted>
                    <name>LogMessage</name>
                    <relationships>
                        <autoTerminate>true</autoTerminate>
                        <name>success</name>
                        <retry>false</retry>
                    </relationships>
                    <state>STOPPED</state>
                    <style/>
                    <type>org.apache.nifi.processors.standard.LogMessage</type>
                </processors>
                <processors>
                    <id>63b6e94b-3ff5-362b-0000-000000000000</id>
                    <parentGroupId>1c30ed87-6e80-3c17-0000-000000000000</parentGroupId>
                    <position>
                        <x>640.0</x>
                        <y>280.0</y>
                    </position>
                    <bundle>
                        <artifact>nifi-hadoop-nar</artifact>
                        <group>org.apache.nifi</group>
                        <version>1.18.0</version>
                    </bundle>
                    <config>
                        <backoffMechanism>PENALIZE_FLOWFILE</backoffMechanism>
                        <bulletinLevel>WARN</bulletinLevel>
                        <comments></comments>
                        <concurrentlySchedulableTaskCount>1</concurrentlySchedulableTaskCount>
                        <descriptors>
                            <entry>
<key>Hadoop Configuration Resources</key>
<value>
    <name>Hadoop Configuration Resources</name>
</value>
                            </entry>
                            <entry>
<key>kerberos-credentials-service</key>
<value>
    <identifiesControllerService>org.apache.nifi.kerberos.KerberosCredentialsService</identifiesControllerService>
    <name>kerberos-credentials-service</name>
</value>
                            </entry>
                            <entry>
<key>kerberos-user-service</key>
<value>
    <identifiesControllerService>org.apache.nifi.kerberos.KerberosUserService</identifiesControllerService>
    <name>kerberos-user-service</name>
</value>
                            </entry>
                            <entry>
<key>Kerberos Principal</key>
<value>
    <name>Kerberos Principal</name>
</value>
                            </entry>
                            <entry>
<key>Kerberos Keytab</key>
<value>
    <name>Kerberos Keytab</name>
</value>
                            </entry>
                            <entry>
<key>Kerberos Password</key>
<value>
    <name>Kerberos Password</name>
</value>
                            </entry>
                            <entry>
<key>Kerberos Relogin Period</key>
<value>
    <name>Kerberos Relogin Period</name>
</value>
                            </entry>
                            <entry>
<key>Additional Classpath Resources</key>
<value>
    <name>Additional Classpath Resources</name>
</value>
                            </entry>
                            <entry>
<key>Directory</key>
<value>
    <name>Directory</name>
</value>
                            </entry>
                            <entry>
<key>Conflict Resolution Strategy</key>
<value>
    <name>Conflict Resolution Strategy</name>
</value>
                            </entry>
                            <entry>
<key>writing-strategy</key>
<value>
    <name>writing-strategy</name>
</value>
                            </entry>
                            <entry>
<key>Block Size</key>
<value>
    <name>Block Size</name>
</value>
                            </entry>
                            <entry>
<key>IO Buffer Size</key>
<value>
    <name>IO Buffer Size</name>
</value>
                            </entry>
                            <entry>
<key>Replication</key>
<value>
    <name>Replication</name>
</value>
                            </entry>
                            <entry>
<key>Permissions umask</key>
<value>
    <name>Permissions umask</name>
</value>
                            </entry>
                            <entry>
<key>Remote Owner</key>
<value>
    <name>Remote Owner</name>
</value>
                            </entry>
                            <entry>
<key>Remote Group</key>
<value>
    <name>Remote Group</name>
</value>
                            </entry>
                            <entry>
<key>Compression codec</key>
<value>
    <name>Compression codec</name>
</value>
                            </entry>
                            <entry>
<key>Ignore Locality</key>
<value>
    <name>Ignore Locality</name>
</value>
                            </entry>
                        </descriptors>
                        <executionNode>ALL</executionNode>
                        <lossTolerant>false</lossTolerant>
                        <maxBackoffPeriod>10 mins</maxBackoffPeriod>
                        <penaltyDuration>30 sec</penaltyDuration>
                        <properties>
                            <entry>
<key>Hadoop Configuration Resources</key>
<value>/home/hadoop/hadoop/etc/hadoop/core-site.xml,/home/hadoop/hadoop/etc/hadoop/hdfs-site.xml</value>
                            </entry>
                            <entry>
<key>kerberos-credentials-service</key>
                            </entry>
                            <entry>
<key>kerberos-user-service</key>
                            </entry>
                            <entry>
<key>Kerberos Principal</key>
                            </entry>
                            <entry>
<key>Kerberos Keytab</key>
                            </entry>
                            <entry>
<key>Kerberos Password</key>
                            </entry>
                            <entry>
<key>Kerberos Relogin Period</key>
<value>4 hours</value>
                            </entry>
                            <entry>
<key>Additional Classpath Resources</key>
                            </entry>
                            <entry>
<key>Directory</key>
<value>/user/hadoop/_SprintsProject</value>
                            </entry>
                            <entry>
<key>Conflict Resolution Strategy</key>
<value>fail</value>
                            </entry>
                            <entry>
<key>writing-strategy</key>
<value>writeAndRename</value>
                            </entry>
                            <entry>
<key>Block Size</key>
                            </entry>
                            <entry>
<key>IO Buffer Size</key>
                            </entry>
                            <entry>
<key>Replication</key>
                            </entry>
                            <entry>
<key>Permissions umask</key>
                            </entry>
                            <entry>
<key>Remote Owner</key>
                            </entry>
                            <entry>
<key>Remote Group</key>
                            </entry>
                            <entry>
<key>Compression codec</key>
<value>NONE</value>
                            </entry>
                            <entry>
<key>Ignore Locality</key>
<value>false</value>
                            </entry>
                        </properties>
                        <retryCount>10</retryCount>
                        <runDurationMillis>0</runDurationMillis>
                        <schedulingPeriod>0 sec</schedulingPeriod>
                        <schedulingStrategy>TIMER_DRIVEN</schedulingStrategy>
                        <yieldDuration>1 sec</yieldDuration>
                    </config>
                    <executionNodeRestricted>false</executionNodeRestricted>
                    <name>PutHDFS</name>
                    <relationships>
                        <autoTerminate>false</autoTerminate>
                        <name>failure</name>
                        <retry>false</retry>
                    </relationships>
                    <relationships>
                        <autoTerminate>false</autoTerminate>
                        <name>success</name>
                        <retry>false</retry>
                    </relationships>
                    <state>STOPPED</state>
                    <style/>
                    <type>org.apache.nifi.processors.hadoop.PutHDFS</type>
                </processors>
                <processors>
                    <id>6f197a27-9be9-3a1e-0000-000000000000</id>
                    <parentGroupId>1c30ed87-6e80-3c17-0000-000000000000</parentGroupId>
                    <position>
                        <x>632.0</x>
                        <y>96.0</y>
                    </position>
                    <bundle>
                        <artifact>nifi-poi-nar</artifact>
                        <group>org.apache.nifi</group>
                        <version>1.18.0</version>
                    </bundle>
                    <config>
                        <backoffMechanism>PENALIZE_FLOWFILE</backoffMechanism>
                        <bulletinLevel>WARN</bulletinLevel>
                        <comments></comments>
                        <concurrentlySchedulableTaskCount>1</concurrentlySchedulableTaskCount>
                        <descriptors>
                            <entry>
<key>extract-sheets</key>
<value>
    <name>extract-sheets</name>
</value>
                            </entry>
                            <entry>
<key>excel-extract-first-row</key>
<value>
    <name>excel-extract-first-row</name>
</value>
                            </entry>
                            <entry>
<key>excel-extract-column-to-skip</key>
<value>
    <name>excel-extract-column-to-skip</name>
</value>
                            </entry>
                            <entry>
<key>excel-format-values</key>
<value>
    <name>excel-format-values</name>
</value>
                            </entry>
                            <entry>
<key>CSV Format</key>
<value>
    <name>CSV Format</name>
</value>
                            </entry>
                            <entry>
<key>Value Separator</key>
<value>
    <dependencies>
        <dependentValues>custom</dependentValues>
        <propertyName>CSV Format</propertyName>
    </dependencies>
    <name>Value Separator</name>
</value>
                            </entry>
                            <entry>
<key>Include Header Line</key>
<value>
    <name>Include Header Line</name>
</value>
                            </entry>
                            <entry>
<key>Quote Character</key>
<value>
    <dependencies>
        <dependentValues>custom</dependentValues>
        <propertyName>CSV Format</propertyName>
    </dependencies>
    <name>Quote Character</name>
</value>
                            </entry>
                            <entry>
<key>Escape Character</key>
<value>
    <dependencies>
        <dependentValues>custom</dependentValues>
        <propertyName>CSV Format</propertyName>
    </dependencies>
    <name>Escape Character</name>
</value>
                            </entry>
                            <entry>
<key>Comment Marker</key>
<value>
    <dependencies>
        <dependentValues>custom</dependentValues>
        <propertyName>CSV Format</propertyName>
    </dependencies>
    <name>Comment Marker</name>
</value>
                            </entry>
                            <entry>
<key>Null String</key>
<value>
    <dependencies>
        <dependentValues>custom</dependentValues>
        <propertyName>CSV Format</propertyName>
    </dependencies>
    <name>Null String</name>
</value>
                            </entry>
                            <entry>
<key>Trim Fields</key>
<value>
    <dependencies>
        <dependentValues>custom</dependentValues>
        <propertyName>CSV Format</propertyName>
    </dependencies>
    <name>Trim Fields</name>
</value>
                            </entry>
                            <entry>
<key>Quote Mode</key>
<value>
    <dependencies>
        <dependentValues>custom</dependentValues>
        <propertyName>CSV Format</propertyName>
    </dependencies>
    <name>Quote Mode</name>
</value>
                            </entry>
                            <entry>
<key>Record Separator</key>
<value>
    <dependencies>
        <dependentValues>custom</dependentValues>
        <propertyName>CSV Format</propertyName>
    </dependencies>
    <name>Record Separator</name>
</value>
                            </entry>
                            <entry>
<key>Include Trailing Delimiter</key>
<value>
    <dependencies>
        <dependentValues>custom</dependentValues>
        <propertyName>CSV Format</propertyName>
    </dependencies>
    <name>Include Trailing Delimiter</name>
</value>
                            </entry>
                        </descriptors>
                        <executionNode>ALL</executionNode>
                        <lossTolerant>false</lossTolerant>
                        <maxBackoffPeriod>10 mins</maxBackoffPeriod>
                        <penaltyDuration>30 sec</penaltyDuration>
                        <properties>
                            <entry>
<key>extract-sheets</key>
<value>SettledBy</value>
                            </entry>
                            <entry>
<key>excel-extract-first-row</key>
<value>0</value>
                            </entry>
                            <entry>
<key>excel-extract-column-to-skip</key>
                            </entry>
                            <entry>
<key>excel-format-values</key>
<value>false</value>
                            </entry>
                            <entry>
<key>CSV Format</key>
<value>custom</value>
                            </entry>
                            <entry>
<key>Value Separator</key>
<value>,</value>
                            </entry>
                            <entry>
<key>Include Header Line</key>
<value>true</value>
                            </entry>
                            <entry>
<key>Quote Character</key>
<value>"</value>
                            </entry>
                            <entry>
<key>Escape Character</key>
<value>\</value>
                            </entry>
                            <entry>
<key>Comment Marker</key>
                            </entry>
                            <entry>
<key>Null String</key>
                            </entry>
                            <entry>
<key>Trim Fields</key>
<value>true</value>
                            </entry>
                            <entry>
<key>Quote Mode</key>
<value>NONE</value>
                            </entry>
                            <entry>
<key>Record Separator</key>
<value>\n</value>
                            </entry>
                            <entry>
<key>Include Trailing Delimiter</key>
<value>false</value>
                            </entry>
                        </properties>
                        <retryCount>10</retryCount>
                        <runDurationMillis>0</runDurationMillis>
                        <schedulingPeriod>0 sec</schedulingPeriod>
                        <schedulingStrategy>TIMER_DRIVEN</schedulingStrategy>
                        <yieldDuration>1 sec</yieldDuration>
                    </config>
                    <executionNodeRestricted>false</executionNodeRestricted>
                    <name>ConvertExcelToCSVProcessor</name>
                    <relationships>
                        <autoTerminate>false</autoTerminate>
                        <name>failure</name>
                        <retry>false</retry>
                    </relationships>
                    <relationships>
                        <autoTerminate>true</autoTerminate>
                        <name>original</name>
                        <retry>false</retry>
                    </relationships>
                    <relationships>
                        <autoTerminate>false</autoTerminate>
                        <name>success</name>
                        <retry>false</retry>
                    </relationships>
                    <state>STOPPED</state>
                    <style/>
                    <type>org.apache.nifi.processors.poi.ConvertExcelToCSVProcessor</type>
                </processors>
                <processors>
                    <id>99181a61-7c1e-3508-0000-000000000000</id>